2Arquivos anteriores ao caso base/ManausBusSchema_v1/ManausBusSchema_v1.PWF
TITU
MAMANUS-MURILO
(Agora vai Muriliz
(coloca teu orientando no muriloverso
(
(                             


DBAR
(Num)OETGb(   nome   )Gl( V)( A)( Pg)( Qg)( Qn)( Qm)(Bc  )( Pl)( Ql)( Sh)Are(Vf)M(1)(2)(3)(4)(5)(6)(7)(8)(9)(10


10004 L  MORIXI2-PA138  100427.5                           9.161.305      101079  14     1     3                   
10005 L  ZSILVES-AM000 E100921.5                                          101079   3     1     2                   
10006 L  DSILVES-AM013  100921.5                                          101079   3     1     2                   
10007 L  MSILVES-AM138  100523.1                                          101079   3     1     5                   
10008 L  SXINGU--PA500 4105635.1                                          101000  14     1     1                   
10009 L  SJURUPA-PA500 4104832.6                                          101000  14     1     1                   
10010 L  SSILVES-AM500 4104024.4                                          101000   3     1     1                   
10011 L  SORIXIM-PA500 4105628.3                                          101000  14     1     1                   
10012 L  SLECHUG-AM500 4103422.4                                          101000   3     1     1                   
10013 L  DJURUPACER013 T100132.6                                          101000  14     1  1  4                   
10014 L  DSILVESCER013 T100524.4                                          101000   3     1  1  4                   
10015 L  DORIXIMCER013 T 97728.3                                          101000  14     1  1  4                   
10016 L  DMACAPACER013 T 97538.4                                          101000   4     1  1  4                   
10017 L  OMACAPA-AP230  102038.4                                          101000   4     1     1                   
10018 L  OLARANJ-AP230  102735.9                                          101000   4     1     1                   
10019 L  JLARANJ-AP069 5100434.3                                         1141079   4     1     5                   
10020 L1 DCNUN12UHE013 2 99338.9 31.2-8.92-15.8 15.8                     1141000   4     1  5  4                   
10021 L1 DCNUNE3UHE013 2100238.1 21.2-4.29-9.49 9.49                     1141000   4     1  5  4                   
10022 L  DLIFGOM-AP013  100428.9                           1.66  .45     1141000   4     1     3                   
10023 L  DCYAT1--AP013  113334.1                                         1141000   4     1     3                   
10024 L  HLIPGPC-AP034  101026.5                           2.47  .66     1141000   4     1     3                   
10025 L  JCYAT1--AP069  102234.2                                         1141000   4     1     3                   
10026 L  MCNUNES-AP138  101335.3                                         1141000   4     1     3                   
10027 L  ZCYAT1--AP000 E113334.1                                         1141000   4     1     3                   
10028 L  DSNAVI--AP013  100421.5                           2.45  .66     1141000   4     1     3                   
10030 L  JPGRAN1-AP069  100831.2                                         1141000   4     1     3                   
10031 L  JSNAVI--AP069   98823.3                                         1141000   4     1     3                   
10034 L  DPORT01-AP013   98628.9                          10.18 3.32     1141000   4     1     3                   
10035 L  MPORTUA-AP138   99833.5                                         1141000   4     1     3                   
10036 D  DPORT02-AP013   99998.2                                         1141000   4     1     3                   
10037 L  HDERPAC-AP034  100225.2                                         1141000   4     1     3                   
10038 L  HPGRAND-AP034   98823.9                                         1141000   4     1     3                   
10039 L  DPGRAND-AP013   99721.9                            2.8  .74     1141000   4     1     3                   
10040 L  JCUPIX--AP069   99826.9                                         1141000   4     1     3                   
10041 L  DCUPIX--AP013  1002 25.                           1.62  .43     1141000   4     1     3                   
10042 L  JBEADED-AP069   98823.4                                         1141000   4     1     3                   
10043 L  JBEADE2-AP069   97722.3                                         1141000   4     1     3                   
10044 L1 DBEADE--AP013  100118.4   0.11.33-999999999                     1141000   4     1     3                   
10045 L  JUPIXI--AP069   99526.9                                         1141000   4     1     3                   
10046 L  HINAJAS-AP034   99522.2                                         1141000   4     1     3                   
10047 L  DINAJAS-AP013  100820.8                           2.06  .55     1141000   4     1     3                   
10049 D  DSANTTF-AP013  100487.9                                         1141000   4     1     3                   
10050 L  DSANTAT-AP013   997 33.                                         1141000   4     1     3                   
10051 L  DSTAT1--AP013   997 33.                                         1141000   4     1     3                   
10052 L  JSANTAN-AP069   99733.1                                         1141000   4     1     3                   
10053 L  MSANTAN-AP138   99933.5                                         1141000   4     1     3                   
10057 L  ZSANAT2-AP000 E 997 33.                                         1141000   4     1     3                   
10058 L  ZSANAT1-AP000 E 997 33.                                         1141000   4     1     3                   
10059 L  ZSAN-Tf-AP000 E 99733.1                                         1141000   4     1     3                   
10060 L  DSRTF01-AP013  100026.3                          13.26 2.65     1141000   4     1     3                   
10061 L  DSRTF02-AP013  100026.3                          13.26 2.65     1141000   4     1     3                   
10062 L  DSRTF03-AP013  100026.3                          13.26 2.65     1141000   4     1     3                   
10063 L  JS.RITA-AP069   99531.3                                         1141000   4     1     3                   
10064 L  DSRTR04-AP013  100026.3                          13.26 2.65     1141000   4     1     3                   
10066 L  DM2TR01-AP013  100028.3                          14.59 3.12     1141000   4     1     3                   
10067 L  DM2TR02-AP013  100028.3                          14.59 3.12     1141000   4     1     3                   
10068 L  DM2TR03-AP013   99329.6                          11.27 1.99     1141000   4     1     3                   
10069 L  JMCP-II-AP069   99933.8                                         1141000   4     1     3                   
10070 D  DNOSE01-AP013  1002102.                                         1141000   4     1     3                   
10071 D  DVJTR02-AP013  1000-25.                                         1141000   4     1     3                   
10072 L  DEQTR01-AP013  100026.4                          11.94 2.45     1141000   4     1     3                   
10073 L  DEQTR02-AP013  100026.4                          11.94 2.45     1141000   4     1     3                   
10074 L  DEQTR03-AP013  100026.4                          11.94 2.45     1141000   4     1     3                   
10075 L  JEQUATO-AP069   99330.8                                         1141000   4     1     3                   
10076 L  DEQTR04-AP013  100026.4                          11.94 2.45     1141000   4     1     3                   
10077 D  DNOSE02-AP013  1002102.                                         1141000   4     1     3                   
10078 D  DNOSE03-AP013  1000-55.                                         1141000   4     1     3                   
10079 L  DTARTAR-AP013  101231.9                           2.24   .6     1141000   4     1     3                   
10080 L  JTARTAR-AP069  100233.5                                         1141000   4     1     3                   
10081 L  OF.GOME-AP230  101142.2                                           71000   4     1     1                   
10082 L1 DF.GOMEUHE013 2 98747.5133.5-26.8 -56.  82.                       71000   4     1  5  4                   
10083 L  OS.A.JA-AP230  101938.8                                          101000   4     1     1                   
10084 L1 DS.A.JAUHE013 2 98844.2211.5 -64. -92.119.6                       71000   4     1  5  4                   
10085 L  JAMATPB-AP069  100132.6                                         1141000   4     1     3                   
10086 L  DCALCOE-AP013   99931.2                           1.34  .36     1141000   4     1     3                   
10087 L  JCALCOE-AP069   999 32.                                         1141000   4     1     3                   
10088 L  DLJTR01-AP013   99329.4                          12.39 3.37     1141000   4     1     3                   
10089 L  JVJRCEA-AP069   99933.8                                         1141000   4     1     3                   
10090 L  DVJTR01-AP013   99933.5                            .82   .4     1141000   4     1     3                   
10091 D  DLJTR02-AP013   99598.2                                         1141000   4     1     3                   
10093 L  DFAZT01-AP013   99630.3                           6.47   .8     1141000   4     1     3                   
10094 L  DFAZT02-AP013   99630.3                           6.47   .8     1141000   4     1     3                   
10095 L  DFAZT03-AP013   99630.3                           6.47   .8     1141000   4     1     3                   
10096 L  JFAZEND-AP069   99532.7                                         1141000   4     1     3                   
10099 L  JMACAPA-AP069 5100635.1                                         1141000   4     1     5                   
10102 L  JS.JOSE-AP069   99530.9                                         1141000   4     1     3                   
10103 L  DSJTR01-AP013   99930.3                          10.15 1.99     1141000   4     1     3                   
10104 L  DSJTR02-AP013   99930.3                          10.15 1.99     1141000   4     1     3                   
10105 L  DSJTR03-AP013   99930.3                          10.15 1.99     1141000   4     1     3                   
10106 D  DSJTR04-AP013  1000-45.                                         1141000   4     1     3                   
10110 L  OLECHUG-AM230  101620.5                                          101000   3     1     1                   
10111 L  MLECHUG-AM138  100517.8                                          101000   3     1     5                   
10120 L  ZLECHU1-AM000 E101620.5                                          101000   3     1     2                   
10121 L  ZLECHU2-AM000 E101620.5                                          101000   3     1     2                   
10122 L  ZLECHU3-AM000 E101620.5                                          101000   3     1     2                   
10123 L  DLECHU1-AM013  101620.5                                          101000   3     1     2                   
10124 L  DLECHU2-AM013  101620.5                                          101000   3     1     2                   
10125 L  DLECHU3-AM013  101620.5                                          101000   3     1     2                   
10126 L  ZLECHU4-AM000 E101620.5                                          101000   3     1     2                   
10128 L  DLECHU4-AM013  101620.5                                          101000   3     1     2                   
10130 L  ZLECHU1-AM000 E100317.3                                          101000   3     1     2                   
10131 L  ZLECHU2-AM000 E100317.3                                          101000   3     1     2                   
10132 L  ZLECHU3-AM000 E100317.3                                          101000   3     1     2                   
10133 L  DLECHU1-AM013  100317.3                                          101000   3     1     2                   
10134 L  DLECHU2-AM013  100317.3                                          101000   3     1     2                   
10135 L  DLECHU3-AM013  100317.3                                          101000   3     1     2                   
10142 L1 DBEADELUTE013  100118.4  4.8-.261  -2.   1.                     1141000   4     1  7  4                   
10143 L  DBEADM1-AP013  100118.4                             6.   4.     1141000   4     1     3                   
10144 L  DBEADM2-AP013  100118.4                             4.   3.     1141000   4     1     3                   
10145 L  DBEADAX-AP013  100118.4                            4.8  2.7     1141000   4     1     3                   
10146 L  DSANT01-AP013   99631.6                          11.54 3.54     1141000   4     1     3                   
10169 D  JNOSE---AP069   992105.                                         1141000   4     1     3                   
10171 L1 DC.CALDUHE013 2 99145.7125.2-37.6-64.5 91.5 10081               114 975   4     1  5  4                   
10179 D  DNOSE04-AP013  1000-55.                                         1141000   4     1     3                   
10181 L  MTARTAR-AP138  101734.5                                         1141000   4     1     3                   
10182 L  ZTARTAR-AP000 E102033.4                                         1141000   4     1     3                   
10183 L  DAMAPA--AP013  100031.8                            1.2  .32     1141000   4     1     3                   
10184 L  JAMAPA--AP069  100032.5                                         1141000   4     1     3                   
10187 L  OC.CALD-AP230  100942.6                                         1141050   4     1     1                   
10199 L  JLJRCEA-AP069 51000 34.                                         1141000   4     1     3                   
10206 L  STU-X-ACAP500 4 99829.4                                          101000  14     1     1                   
10207 L  STU-X-BCAP500 4 99829.4                                          101000  14     1     1                   
10208 L  SXI-J-ACAP500 4103737.9                                          101000  14     1     1                   
10209 L  SXI-J-BCAP500 4103737.9                                          101000  14     1     1                   
10210 L  SJU-X-ACAP500 41069 30.                                          101000  14     1     1                   
10211 L  SJU-X-BCAP500 41069 30.                                          101000  14     1     1                   
10212 L  SJU-O-ACAP500 4103237.3                                          101000  14     1     1                   
10213 L  SJU-O-BCAP500 4103237.3                                          101000  14     1     1                   
10214 L  SOR-J-ACAP500 4107623.8                                          101000  14     1     1                   
10215 L  SOR-J-BCAP500 4107623.8                                          101000  14     1     1                   
10216 L  SOR-S-ACAP500 4105432.5                                          101000  14     1     1                   
10217 L  SOR-S-BCAP500 4105432.5                                          101000  14     1     1                   
10218 L  SSI-O-ACAP500 4104120.1                                          101000   3     1     1                   
10219 L  SSI-O-BCAP500 4104120.1                                          101000   3     1     1                   
10220 L  SSI-L-ACAP500 4105226.8                                          101000   3     1     1                   
10221 L  SSI-L-BCAP500 4105226.8                                          101000   3     1     1                   
10222 L  SLE-S-ACAP500 4102519.9                                          101000   3     1     1                   
10223 L  SLE-S-BCAP500 4102519.9                                          101000   3     1     1                   
10300 L  JAPAREC-AM069 5 98110.5                          70.8214.38     1131000   3     1     3                   
10304 L  MITACO2-AM138   993 20.                          42.29 8.59     1131000   3     1     3                   
10306 L  MIRANDU-AM138   9928.24                          15.66 3.18  15.1131000   3     1     3                   
10308 L  MPARQ10-AM138   99010.4                          87.64 17.8     1131000   3     1     3                   
10310 L  MDI-4---AM138  100114.2                          75.32 15.3     1131000   3     1     3                   
10312 L  MRIOPTE-AM138  100116.8                          10.37 2.11     1131000   3     1     3                   
10313 L  MAMAZON-AM138  100217.4                          76.9315.62     1131000   3     1     3                   
10315 L1 DAPARB1UTE013 2100610.5   0.   0.   0.   0.                     1131000   3     1  7  4                   
10317 L1 DAPARB2UTE013 2100610.5   0.   0.   0.   0.                     1131000   3     1  7  4                   
10320 L  JMAUAB1-AM069  10028.59                                         1131000   3     1     3                   
10321 L1 DMAUAB3UTE013 210278.59   0.   0.   0.   0.                     1131000   3     1  7  4                   
10325 L  JMAUAB2-AM069  10028.59                                         1131000   3     1     3                   
10335 L  JMAUA2M-AM069 210028.62                           38.1 7.74     1131000   3     1     3                   
10344 L  JCONSE1-AM069  10038.73                          38.23 7.76     1131000   3     1     3                   
10345 L  JCONSE2-AM069   9958.04                          10.98 2.23     1131000   3     1     3                   
10350 L  JCACHO2-AM069   9947.44                          38.58 7.83     1131000   3     1     3                   
10351 L  JCACHO1-AM069   98511.3                          20.09 4.08     1131000   3     1     3                   
10360 L  JVOITO--AM069  100013.1                           59.6 12.1     1131000   3     1     3                   
10361 L  ZJTEIX1-AM000 E100513.1                                         1131000   3     1     2                   
10362 L  ZJTEIX2-AM000 E100513.1                                         1131000   3     1     2                   
10363 L  ZJTEIX3-AM000 E1005 13.                                         1131000   3     1     2                   
10364 L  ZJTEIX4-AM000 E100513.1                                         1131000   3     1     2                   
10365 L  DJTEIX1-AM013  100513.1                                         1131000   3     1     2                   
10366 L  DJTEIX2-AM013  100513.1                                         1131000   3     1     2                   
10367 L  DJTEIX3-AM013  1005 13.                                         1131000   3     1     2                   
10368 L  DJTEIX4-AM013  100513.1                                         1131000   3     1     2                   
10370 L  JFLORES-AM069   99111.8                          76.4615.53     1131000   3     1     3                   
10375 D1 DFLORESUTE013 2 99256.3   0.   0.   0.   0.                     1131000   3     1  7  4                   
10379 L  JAMBEV--AM069   99111.8                           3.89  .79     1131000   3     1     3                   
10380 L  JPNEGRA-AM069   98510.8                          76.7515.58     1131000   3     1     3                   
10381 L  ZMAU3-1-AM000 E 99813.5                                         1131000   3     1     2                   
10382 L  ZMAU3-2-AM000 E 99813.5                                         1131000   3     1     2                   
10383 L  ZMAU3-3-AM000 E 99813.5                                         1131000   3     1     2                   
10384 L  ZMAU3-4-AM000 E 99813.5                                         1131000   3     1     2                   
10385 L  DMAU3-1-AM013   99813.5                                         1131000   3     1     2                   
10386 L  DMAU3-2-AM013   99813.5                                         1131000   3     1     2                   
10387 L  DMAU3-3-AM013   99813.5                                         1131000   3     1     2                   
10388 L  DMAU3-4-AM013   99813.5                                         1131000   3     1     2                   
10390 L  JPIEPNG-AM069   98911.5                                         1131000   3     1     3                   
10391 L1 DPIEPNGUTE013 2101912.9  60.12.93-51.251.24                     1131000   3     1  7  4                   
10393 L  JPISMAE-AM069   98610.3                          15.71 3.19     1131000   3     1     3                   
10394 L  JSHOPMA-AM069   99011.9                           5.38 1.09     1131000   3     1     3                   
10395 L  JSERING-AM069   98511.3                          68.6113.93     1131000   3     1     3                   
10400 L  OMANAUS-AM230  100018.6                                         1131000   3     1     1                   
10401 L  JMANA1A-AM069  100213.2                                         1131000   3     1     5                   
10402 L  JMANAU2-AM069  10037.66                                         1131000   3     1     3                   
10405 L  OCROCHA-AM230  101620.8                                         1131000   3     1     1                   
10406 L1 DCROCHAUTE013 2 99725.9  65. -11.-51.251.24                     1131000   3     1  7  4                   
10407 D1 DCROCHBUTE013 2101472.7   0.   0.   0.   0.                     1131000   3     1  7  4                   
10410 L  OBALBIN-AM230  102924.6                                         1131000   3     1     1                   
10411 L1 DBALBI1UHE013 2 99328.3 31.1-4.36-24.224.19         .6   .1     1131000   3     1  5  4                   
10412 L1 DBALBI2UHE013 2 99328.3 31.1-4.36-24.224.19         .6   .1     1131000   3     1  5  4                   
10413 L1 DBALBI3UHE013 2 99328.4 31.1-4.39-24.224.19                     1131000   3     1  5  4                   
10414 L1 DBALBI4UHE013 2 99328.4 31.1-4.39-24.224.19                     1131000   3     1  5  4                   
10415 L1 DBALBI5UHE013 2 99328.3 31.1-4.36-24.224.19         .6   .1     1131000   3     1  5  4                   
10416 L  JP.FIG.-AM069 2100621.9                                         1131000   3     1     2                   
10417 L  JP.FIG.-AM069 2100521.7                                         1151000   3     1     5                   
10418 L  DP.FIG.-AM013  100320.1                          14.13 2.87     1131000   3     1     5                   
10419 L  OP.FIG.-AM230  102722.8                                         1131000   3     1     1                   
10420 L  JDISTR1-AM069   9957.72                          79.6416.17     1131000   3     1     3                   
10421 L  JCESPEC-AM069   9937.49                          52.9410.75     1131000   3     1     3                   
10422 L  ZMANA-1-AM000 E 99711.5                                         1131000   3     1     2                   
...
99999

DLIN
(De )d O d(Pa )NcEP ( R% )( X% )(Mvar)(Tap)(Tmn)(Tmx)(Phs)(Bc  )(Cn)(Ce)Ns(Cq)(1)(2)(3)(4)(5)(6)(7)(8)(9)(10

10000     10001 1          46.67      1.008  .95 1.05     -10001 30. 36.32 36. 14 14                          
10000     10001 2          46.67      1.008  .95 1.05     -10001 30. 36.32 36. 14 14                          
10000     10018 1      .72  5.14  25.8                          557.697.  557. 14  4                          
10000     10018 2      .72  5.14  25.8                          557.697.  557. 14  4                          
10000     10018 3      .72  5.14  25.8                          557.697.  557. 14  4                          
10002     10998 1            -6.         1.                     150.180.  180. 14 14                          
10003     10002 1            16.         1.                      50. 60.  180. 14 14                          
10006     10005 1            16.         1.                      50. 60.  180.  3  3                          
10007     10005 1            -6.         1.                     150.180.  180.  3  3                          
10007     10304 1    5.037 25.78 8.841                          172.215.  172.  3  3                          
10007     10304 2    5.037 25.78 8.841                          172.215.  172.  3  3                          
10007     10577 1     .148 1.171  .703                          335.420.  335.  3  3                          
10008      4986 1    .21983.2203986.47                          29233464  2923 14 14                          
10008      4986 2    .21983.2203986.47                          29233464  2923 14 14                          
10008     10208 1           -.94                                25003000  2500 14 14                          
10008     10209 1           -.94                                25003000  2500 14 14                          
10008     13504 1          4.962      1.066   .9  1.1     -13502300.360.32200. 14 14                          
10009     10000 1          2.222      1.027  .95 1.05     -10000450.540.32450. 14 14                          
10009     10000 2          2.222      1.027  .95 1.05     -10000450.540.32450. 14 14                          
10009     10000 3          2.222      1.027  .95 1.05     -10000450.540.32450. 14 14                          
10009     10013 1 T           5.         1.                     200.200.   20. 14 14                          
10009     10210 1           -.94                                25003000  2500 14 14                          
10009     10211 1           -.94                                25003000  2500 14 14                          
10009     10212 1          -1.33                                25003000  2500 14 14                          
10009     10213 1          -1.33                                25003000  2500 14 14                          
10010     10005 1          10.67      1.046  .95  1.1     -10007150.180.32180.  3  3                          
10010     10014 1 T           5.         1.                     200.200.   33.  3  3                          
10010     10218 1          -1.33                                25003000  2500  3  3                          
10010     10219 1          -1.33                                25003000  2500  3  3                          
10010     10220 1           -.78                                25003000  2500  3  3                          
10010     10221 1           -.78                                25003000  2500  3  3                          
10011     10002 1          10.67      1.058  .95  1.1     -10998150.180.32180. 14 14                          
10011     10015 1 T           5.       1.05                     200.200.   20. 14 14                          
10011     10214 1          -1.33                                25003000  2500 14 14                          
10011     10215 1          -1.33                                25003000  2500 14 14                          
10011     10216 1          -1.33                                25003000  2500 14 14                          
10011     10217 1          -1.33                                25003000  2500 14 14                          
10011     11000 1          10.67      1.058  .95  1.1     -10998150.180.32150. 14 14                          
10011     14002 1          4.962       1.07   .9  1.1     -14000300.360.32200. 14 14                          
10011     14004 1          4.962       1.07   .9  1.1     -14000300.360.32200. 14 14                          
10012     10120 1          1.165      1.011   .9  1.1     -10110600.780.32600.  3  3                          
10012     10121 1          1.165      1.011   .9  1.1     -10110600.780.32600.  3  3                          
10012     10122 1          1.165      1.011   .9  1.1     -10110600.780.32600.  3  3                          
10012     10126 1          1.165      1.011   .9  1.1     -10110600.780.32600.  3  3                          
10012     10222 1           -.78                                25003000  2500  3  3                          
10012     10223 1           -.78                                25003000  2500  3  3                          
10017     10016 1 T          10.       1.05                     100.100.   20.  4  4                          
10017     10081 1     .569   4.8  24.7                          625.781.  625.  4  4                          
10017     10081 2    .6204  5.37 27.74                          625.781.  781.  4  4                          
10017     10099 1            10.      1.007  .95  1.1     -10099150.180.32150.  4  4                          
10017     10099 2            10.      1.007  .95  1.1     -10099150.180.32150.  4  4                          
10017     10099 3             8.      1.007  .95  1.1     -10099150.180.32150.  4  4                          
10018     10017 1     1.93 14.0271.931                          557.697.  557.  4  4                          
10018     10017 2     1.93 14.0271.931                          557.697.  557.  4  4                          
10018     10019 1            20.      1.015  .95  1.1     -10019100.120.32100.  4  4                          
10018     10019 2            20.      1.015  .95  1.1     -10019100.120.32100.  4  4                          
10018     10083 1    1.0354.76329.4408                          244.305.  244.  4  4                          
10018     10083 2    1.0354.76329.4408                          244.305.  244.  4  4                          
10019     19787 1           .001                                99999999  9999  4 14                          
10020     10026 1          20.35         1.                      60. 60.   60.  4  4                          
10021     10026 1           23.5         1.                      34. 34.   34.  4  4                          
10022     10024 1           56.8      .9989  .95 1.05     -10024 10. 12.33 12.  4  4                          
10022     10026 1          122.8      .9922  .95 1.05      10022 20. 24.   24.  4  4                          
10023     10027 1         43.972         1.                      10. 10.   10.  4  4                          
10024     10037 1   29.78436.537    .1                           17. 21.   17.  4  4                          
10025     10027 1         -2.588         .9   .9  1.1     -10040 30. 30.   30.  4  4                          
10025     10030 1   15.69730.176  .489                           42. 53.   42.  4  4                          
10026     10027 1         17.413         .9   .9  1.1     -10025 30. 30.32 30.  4  4                          
10026     10053 1   14.04327.797 6.874                           84.105.   84.  4  4                          
10026     10053 2   11.24627.551 7.067                           98.122.   98.  4  4                          
10026     10181 1    8.99822.012 5.638                           98.122.  122.  4  4                          
10030     10040 1   22.74943.747  .709                           42. 53.   42.  4  4                          
10031     10028 1          133.3      .9989  .95 1.05     -10028 7.5 7.532 7.5  4  4                          
10034     10036 1           .001                                999.999.  999.  4  4                          
10035     10034 1         77.933      .9832  .95 1.05     -10034 20. 20.32 20.  4  4                          
10035     10036 1         77.933      .9969  .95 1.05     -10036 20. 20.32 20.  4  4                          
10035     10053 1 T    .51 1.006  .248                           84.105.   84.  4  4                          
10037     10038 1   59.81773.391    .1                           17. 21.   17.  4  4                          
10037     10046 1   134.89165.66    .3                           17. 21.   17.  4  4                          
10038     10039 1           240.      .9959  .95 1.05     -10039 2.5 2.533 2.5  4  4                          
10038     10039 2           240.      .9959  .95 1.05     -10039 2.5 2.533 2.5  4  4                          
10040     10042 1   20.13838.721  .628                           42. 53.   42.  4  4                          
10040     10045 1     .052  .101  .002                           42. 53.   42.  4  4                          
10042     10031 1    2.094 4.024  .065                           42. 53.   42.  4  4                          
10042     10043 1   15.69412.997  .181                           22. 27.   22.  4  4                          
10043     10044 1         65.188      1.005   .9  1.1     -10044 20. 26.16 20.  4  4                          
10044     10142 1             .1                                 22. 27.   22.  4  4                          
10044     10143 1             .1                                 22. 27.   22.  4  4                          
10044     10144 1             .1                                 22. 27.   22.  4  4                          
10044     10145 1             .1                                 22. 27.   22.  4  4                          
10045     10041 1           200.      .9964  .95 1.05     -10041  5.  5.32  5.  4  4                          
10046     10047 1           240.      1.002  .95 1.05     -10047 2.5 2.533 2.5  4  4                          
10046     10047 2           240.      1.002  .95 1.05     -10047 2.5 2.533 2.5  4  4                          
10049     10059 1         16.138         1.                      20. 20.   20.  4  4                          
10050     10057 1         43.972         1.                      13. 13.   13.  4  4                          
10051     10058 1         44.027         1.                      13. 13.   13.  4  4                          
10052     10057 1         -2.588         1.                      40. 40.   40.  4  4                          
10052     10058 1         -2.642         1.                      40. 40.   40.  4  4                          
10052     10059 1           .862         1.                      20. 20.   20.  4  4                          
10052     10075 1    2.13313.232  .256                           91.114.  114.  4  4                          
10052     10096 1     .549 3.407  .066                           91.114.  114.  4  4                          
10052     10099 1    2.46115.268  .296                           91.114.  114.  4  4                          
10052     10099 2    2.46115.268  .296                           91.114.  114.  4  4                          
10052     10146 1           22.1      .9933  .95 1.05     -10146 30. 36.32 30.  4  4                          
10053     10057 1         17.413         1.                      40. 40.   40.  4  4                          
10053     10058 1         17.742         1.                      40. 40.   40.  4  4                          
10053     10059 1           43.3         1.                      40. 40.   40.  4  4                          
10060     10061 1           .001                                999.999.  999.  4  4                          
10061     10062 1           .001                                999.999.  999.  4  4                          
10062     10064 1           .001                                999.999.  999.  4  4                          
10063     10060 1            65.      .9975  .95 1.05     -10060 26. 26.32 26.  4  4                          
10063     10061 1            65.      .9975  .95 1.05     -10061 26. 26.32 26.  4  4                          
10063     10062 1            65.      .9975  .95 1.05     -10062 26. 26.32 26.  4  4                          
10063     10064 1            65.      .9975  .95 1.05     -10064 26. 26.32 26.  4  4                          
10063     10099 1    2.08812.955  .251                           91.114.  114.  4  4                          
10063     10099 2    2.08812.955  .251                           91.114.  114.  4  4                          
10066     10067 1           .001                                999.999.  999.  4  4                          
10067     10068 1D          .001                                999.999.  999.  4  4                          
10069     10066 1            65.      .9978  .95 1.05     -10066 26. 26.32 26.  4  4                          
10069     10067 1            65.      .9978  .95 1.05     -10067 26. 26.32 26.  4  4                          
10069     10068 1            65.      .9905  .95 1.05     -10068 26. 26.32 26.  4  4                          
10069     10099 2DT    .97 6.015  .117                           91.114.  114.  4  4                          
10070     10077 1           .001                                999.999.  999.  4  4                          
10072     10073 1           .001                                999.999.  999.  4  4                          
10073     10074 1           .001                                999.999.  999.  4  4                          
10074     10076 1           .001                                999.999.  999.  4  4                          
10075     10063 1     .656 4.072  .079                           91.114.  114.  4  4                          
10075     10072 1            65.      .9976  .95 1.05     -10072 26. 26.32 26.  4  4                          
10075     10073 1            65.      .9976  .95 1.05     -10073 26. 26.32 26.  4  4                          
10075     10074 1            65.      .9976  .95 1.05     -10074 26. 26.32 26.  4  4                          
10075     10076 1            65.      .9976  .95 1.05     -10076 26. 26.32 26.  4  4                          
10077     10078 1D          .001                                999.999.  999.  4  4                          
10078     10179 1D          .001                                999.999.  999.  4  4                          
10079     10182 2          124.7         1.                       7.  7.    7.  4  4                          
10080     10085 1   21.11651.622   .84                           47. 59.   47.  4  4                          
10080     10182 1           -4.7      .9829   .9  1.1      10080 20. 20.16 20.  4  4                          
10082     10081 1          6.965         1.                     292.350.  292.  4  4                          
10084     10083 1    .10794.4237         1.                     333.400.  333.  4  4                          
10085     10087 1 T 28.75170.339 1.145                           47. 59.   47.  4  4                          
10087     10086 1         105.71      .9963  .95 1.05     -10086  9.  9.12  9.  4  4                          
10088     10091 1           .001                                999.999.  999.  4  4                          
10089     10071 1D           70.         1.  .95 1.05     -10071 13. 13.32 13.  4  4                          
10089     10090 1            70.       .997  .95 1.05     -10090 13. 13.32 13.  4  4                          
10090     10071 1D          .001                                999.999.  999.  4  4                          
10093     10094 1           .001                                999.999.  999.  4  4                          
10094     10095 1           .001                                999.999.  999.  4  4                          
10096     10093 1            65.      .9933  .95 1.05     -10093 26. 26.32 26.  4  4                          
10096     10094 1            65.      .9933  .95 1.05     -10094 26. 26.32 26.  4  4                          
10096     10095 1            65.      .9933  .95 1.05     -10095 26. 26.32 26.  4  4                          
10099     10069 1 T    .97 6.015  .117                           91.114.  114.  4  4                          
10099     10169 1     .455 2.822  .219                           91.114.  228.  4  4                          
10102     10063 1     .388 2.406  .187                          180.228.  228.  4  4                          
10102     10069 1D    .455 2.822  .219                          180.228.  228.  4  4                          
10102     10103 1           8.68      .9969  .95 1.05     -10103 36. 36.32 36.  4  4                          
10102     10104 1           8.68      .9969  .95 1.05     -10104 36. 36.32 36.  4  4                          
10102     10105 1           8.68      .9969  .95 1.05     -10105 36. 36.32 36.  4  4                          
10102     10106 1D          8.68         1.  .95 1.05     -10106 36. 36.32 26.  4  4                          
10103     10104 1           .001                                999.999.  999.  4  4                          
10104     10105 1           .001                                999.999.  999.  4  4                          
10105     10106 1D          .001                                999.999.  999.  4  4                          
10110     10130 1          8.997      .9981   .9  1.1     -10111150.180.21150.  3  3                          
10110     10131 1          8.997      .9981   .9  1.1     -10111150.180.21150.  3  3                          
10110     10132 1          8.997      .9981   .9  1.1     -10111150.180.21150.  3  3                          
10110     10400 1      .19  1.31  4.77                          435.552.  494.  3  3                          
10110     10400 2      .19  1.31  4.77                          435.552.  494.  3  3                          
10110     10510 1    .19751.85127.6958                          775.922.  625.  3  3                          
10110     10510 2    .19751.85127.6958                          775.922.  625.  3  3                          
10110     10510 3    .19321.5941  6.46                          775.922.  625.  3  3                          
10111     10312 1    4.931 15.87 5.467                          138.160.  138.  3  3                          
10111     10313 1     .093  .802  .452                          410.530.  410.  3  3                          
10111     10313 2     .093  .802  .452                          410.530.  410.  3  3                          
10120     10110 1          -.017         1.                     600.780.  600.  3  3                          
10120     10123 1          1.115         1.                     120.120.  120.  3  3                          
10121     10110 1          -.017         1.                     600.780.  600.  3  3                          
10121     10124 1          1.115         1.                     120.120.  120.  3  3                          
10122     10110 1          -.017         1.                     600.780.  600.  3  3                          
10122     10125 1          1.115         1.                     120.120.  120.  3  3                          
10126     10110 1          -.017         1.                     600.780.  600.  3  3                          
10126     10128 1          1.115         1.                     120.120.  120.  3  3                          
10130     10111 1         -1.503         1.                     150.180.  150.  3  3                          
10130     10133 1         47.003         1.                       2.  2.    2.  3  3                          
10131     10111 1         -1.503         1.                     150.180.  150.  3  3                          
10131     10134 1         47.003         1.                       2.  2.    2.  3  3                          
10132     10111 1         -1.503         1.                     150.180.  150.  3  3                          
10132     10135 1         47.003         1.                       2.  2.    2.  3  3                          
10169     10070 1            65.      .9993  .95 1.05     -10070 26. 26.32 26.  4  4                          
10169     10077 1            65.      .9993  .95 1.05     -10077 26. 26.32 26.  4  4                          
10169     10078 1D           65.         1.  .95 1.05     -10078 26. 26.32 26.  4  4                          
10169     10179 1D           65.         1.  .95 1.05     -10179 26. 26.32 26.  4  4                          
10171     10187 1         4.3267         1.                     240.288.  240.  4  4                          
10181     10182 1          41.45         1.                      20. 20.   20.  4  4                          
10184     10085 1    5.12112.509  .203                           47. 59.   47.  4  4                          
10184     10183 1          100.5      .9974  .95 1.05     -10183  9.  9.12  9.  4  4                          
10187     10081 1      .08  .573   2.9                          558.697.  558.  4  4                          
10199     10019 1    1.468   4.8  .086                           61. 76.   61.  4  4                          
10199     10088 1            65.      .9902  .95 1.05     -10088 26. 26.32 26.  4  4                          
10199     10089 1   10.276  33.6   .63                           55. 60.   60.  4  4                          
10199     10091 1            65.      .9927  .95 1.05     -10091 26. 26.32 26.  4  4                          
10206     10008 1         -1.957                                20182724   86. 14 14                          
10207     10008 1         -1.957                                20182724   86. 14 14                          
...


99999

DBSH

FBAN
(NFr) O (NTo) Nc C (Vmn (Vmx Bctrl (Qini) T A (Extr
10001            D 0950 1050 10001        C         
(G  O E (U) UOp (Sht ) M
 1        1   0    1.8 S
FBAN
(NFr) O (NTo) Nc C (Vmn (Vmx Bctrl (Qini) T A (Extr
10004            D 0950 1050 10004        C         
(G  O E (U) UOp (Sht ) M
 1        1   0    2.4 S
FBAN
(NFr) O (NTo) Nc C (Vmn (Vmx Bctrl (Qini) T A (Extr
10008            D 1000 1100 10008  -136. C         
(G  O E (U) UOp (Sht ) M
 1        1   1  -136. S
FBAN
(NFr) O (NTo) Nc C (Vmn (Vmx Bctrl (Qini) T A (Extr
10009            D 1000 1100 10009  -136. C         
(G  O E (U) UOp (Sht ) M
 1        2   1  -136. S
FBAN
(NFr) O (NTo) Nc C (Vmn (Vmx Bctrl (Qini) T A (Extr
10010            D 1000 1100 10010        C         
(G  O E (U) UOp (Sht ) M
 1        1   0  -200. S
 2        1   0   100. S
FBAN
(NFr) O (NTo) Nc C (Vmn (Vmx Bctrl (Qini) T A (Extr
10011            D 1000 1100 10011        C         
(G  O E (U) UOp (Sht ) M
 1        1   0  -200. S
 2        1   0   100. S
FBAN
(NFr) O (NTo) Nc C (Vmn (Vmx Bctrl (Qini) T A (Extr
10012            D 1000 1100 10012        C         
(G  O E (U) UOp (Sht ) M
 1        1   0  -200. S
FBAN
(NFr) O (NTo) Nc C (Vmn (Vmx Bctrl (Qini) T A (Extr
10017            D 0950 1050 10017    25. C         
(G  O E (U) UOp (Sht ) M
 1        2   1    25. S
FBAN
(NFr) O (NTo) Nc C (Vmn (Vmx Bctrl (Qini) T A (Extr
10022            D 0950 1050 10022        L         
(G  O E (U) UOp (Sht ) M
10        1   0    1.2 S
FBAN
(NFr) O (NTo) Nc C (Vmn (Vmx Bctrl (Qini) T A (Extr
10028            D 0950 1050 10028    1.8 L         
(G  O E (U) UOp (Sht ) M
 7    D   1   0     .6 S
 8        1   0     .6 S
 9        1   0     .6 S
10        1   1    1.8 S
FBAN
(NFr) O (NTo) Nc C (Vmn (Vmx Bctrl (Qini) T A (Extr
10034            D 0950 1050 10034        L         
(G  O E (U) UOp (Sht ) M
10        1   0    1.2 S
FBAN
(NFr) O (NTo) Nc C (Vmn (Vmx Bctrl (Qini) T A (Extr
10036            D 0950 1050 10036    1.2 L         
(G  O E (U) UOp (Sht ) M
10        1   1    1.2 S
FBAN
(NFr) O (NTo) Nc C (Vmn (Vmx Bctrl (Qini) T A (Extr
10039            D 0950 1050 10039    1.2 L         
(G  O E (U) UOp (Sht ) M
10        1   1    1.2 S
FBAN
(NFr) O (NTo) Nc C (Vmn (Vmx Bctrl (Qini) T A (Extr
10041            D 0950 1050 10041     .6 L         
(G  O E (U) UOp (Sht ) M
10        1   1     .6 S
FBAN
(NFr) O (NTo) Nc C (Vmn (Vmx Bctrl (Qini) T A (Extr
10044            D 0950 1050 10044    3.3 L         
(G  O E (U) UOp (Sht ) M
 7    D   1   0     .6 S
 8        1   1   1.65 S
 9        1   1   1.65 S
10        1   0    1.8 S
FBAN
(NFr) O (NTo) Nc C (Vmn (Vmx Bctrl (Qini) T A (Extr
10047            D 0950 1050 10047    1.8 L         
(G  O E (U) UOp (Sht ) M
10        1   1    1.8 S
FBAN
(NFr) O (NTo) Nc C (Vmn (Vmx Bctrl (Qini) T A (Extr
10049            D 0950 1050 10049    3.6 L         
(G  O E (U) UOp (Sht ) M
10        1   1    3.6 S
FBAN
(NFr) O (NTo) Nc C (Vmn (Vmx Bctrl (Qini) T A (Extr
10052            D 0950 1050 10052        L         
(G  O E (U) UOp (Sht ) M
 1        1   0   10.2 S
FBAN
(NFr) O (NTo) Nc C (Vmn (Vmx Bctrl (Qini) T A (Extr
10060            D 0950 1050 10060    3.6 L         
(G  O E (U) UOp (Sht ) M
10        1   1    3.6 S
FBAN
(NFr) O (NTo) Nc C (Vmn (Vmx Bctrl (Qini) T A (Extr
10061            D 0950 1050 10061    3.6 L         
(G  O E (U) UOp (Sht ) M
10        1   1    3.6 S
FBAN
(NFr) O (NTo) Nc C (Vmn (Vmx Bctrl (Qini) T A (Extr
10062            D 0950 1050 10062    3.6 L         
(G  O E (U) UOp (Sht ) M
10        1   1    3.6 S
FBAN
(NFr) O (NTo) Nc C (Vmn (Vmx Bctrl (Qini) T A (Extr
10064            D 0950 1050 10064    3.6 C         
(G  O E (U) UOp (Sht ) M
10        1   1    3.6 S
FBAN
(NFr) O (NTo) Nc C (Vmn (Vmx Bctrl (Qini) T A (Extr
10066            D 0950 1050 10066    3.6 L         
(G  O E (U) UOp (Sht ) M
10        1   1    3.6 S
FBAN
(NFr) O (NTo) Nc C (Vmn (Vmx Bctrl (Qini) T A (Extr
10067            D 0950 1050 10067    3.6 L         
(G  O E (U) UOp (Sht ) M
10        1   1    3.6 S
FBAN
(NFr) O (NTo) Nc C (Vmn (Vmx Bctrl (Qini) T A (Extr
10068            D 0950 1050 10068        L         
(G  O E (U) UOp (Sht ) M
10        1   0    3.6 S
FBAN
(NFr) O (NTo) Nc C (Vmn (Vmx Bctrl (Qini) T A (Extr
10070            D 0950 1050 10070    3.6 C         
(G  O E (U) UOp (Sht ) M
10        2   1    3.6 S
FBAN
(NFr) O (NTo) Nc C (Vmn (Vmx Bctrl (Qini) T A (Extr
10071            D 0950 1050 10071        C         
(G  O E (U) UOp (Sht ) M
10        1   0    2.4 S
FBAN
(NFr) O (NTo) Nc C (Vmn (Vmx Bctrl (Qini) T A (Extr
10072            D 0950 1050 10072    3.6 L         
(G  O E (U) UOp (Sht ) M
10        1   1    3.6 S
FBAN
(NFr) O (NTo) Nc C (Vmn (Vmx Bctrl (Qini) T A (Extr
10073            D 0950 1050 10073    3.6 L         
(G  O E (U) UOp (Sht ) M
10        1   1    3.6 S
FBAN
(NFr) O (NTo) Nc C (Vmn (Vmx Bctrl (Qini) T A (Extr
10074            D 0950 1050 10074    3.6 L         
(G  O E (U) UOp (Sht ) M
10        1   1    3.6 S
FBAN
(NFr) O (NTo) Nc C (Vmn (Vmx Bctrl (Qini) T A (Extr
10076            D 0950 1050 10076    3.6 C         
(G  O E (U) UOp (Sht ) M
10        1   1    3.6 S
FBAN
(NFr) O (NTo) Nc C (Vmn (Vmx Bctrl (Qini) T A (Extr
10077            D 0950 1050 10077    3.6 C         
(G  O E (U) UOp (Sht ) M
10        2   1    3.6 S
FBAN
(NFr) O (NTo) Nc C (Vmn (Vmx Bctrl (Qini) T A (Extr
10078            D 0950 1050 10078    7.2 C         
(G  O E (U) UOp (Sht ) M
10        2   2    3.6 S
FBAN
(NFr) O (NTo) Nc C (Vmn (Vmx Bctrl (Qini) T A (Extr
10086            D 0950 1050 10086        L         
(G  O E (U) UOp (Sht ) M
10        1   0    1.2 S
FBAN
(NFr) O (NTo) Nc C (Vmn (Vmx Bctrl (Qini) T A (Extr
10088            D 0950 1050 10088    1.2 L         
(G  O E (U) UOp (Sht ) M
10        1   1    1.2 S
FBAN
(NFr) O (NTo) Nc C (Vmn (Vmx Bctrl (Qini) T A (Extr
10090            D 0950 1050 10090        L         
(G  O E (U) UOp (Sht ) M
10        1   0    3.6 S
FBAN
(NFr) O (NTo) Nc C (Vmn (Vmx Bctrl (Qini) T A (Extr
10091            D 0950 1050 10091    1.2 L         
(G  O E (U) UOp (Sht ) M
10        1   1    1.2 S
FBAN
(NFr) O (NTo) Nc C (Vmn (Vmx Bctrl (Qini) T A (Extr
10093            D 0950 1050 10093        C         
(G  O E (U) UOp (Sht ) M
10        1   0    3.6 S
FBAN
(NFr) O (NTo) Nc C (Vmn (Vmx Bctrl (Qini) T A (Extr
10094            D 0950 1050 10094        C         
(G  O E (U) UOp (Sht ) M
10        1   0    3.6 S
FBAN
(NFr) O (NTo) Nc C (Vmn (Vmx Bctrl (Qini) T A (Extr
10095            D 0950 1050 10095        C         
(G  O E (U) UOp (Sht ) M
10        1   0    3.6 S
FBAN
(NFr) O (NTo) Nc C (Vmn (Vmx Bctrl (Qini) T A (Extr
10103            D 0950 1050 10103    3.6 C         
(G  O E (U) UOp (Sht ) M
10        1   1    3.6 S
FBAN
(NFr) O (NTo) Nc C (Vmn (Vmx Bctrl (Qini) T A (Extr
10104            D 0950 1050 10104    3.6 C         
(G  O E (U) UOp (Sht ) M
10        1   1    3.6 S
FBAN
(NFr) O (NTo) Nc C (Vmn (Vmx Bctrl (Qini) T A (Extr
10105            D 0950 1050 10105    3.6 C         
(G  O E (U) UOp (Sht ) M
10        1   1    3.6 S
FBAN
(NFr) O (NTo) Nc C (Vmn (Vmx Bctrl (Qini) T A (Extr
10106            D 0950 1050 10106    3.6 L         
(G  O E (U) UOp (Sht ) M
10        1   1    3.6 S
FBAN
(NFr) O (NTo) Nc C (Vmn (Vmx Bctrl (Qini) T A (Extr
10110            D 0950 1050 10110   220. C         
(G  O E (U) UOp (Sht ) M
 1        6   4    55. S
FBAN
(NFr) O (NTo) Nc C (Vmn (Vmx Bctrl (Qini) T A (Extr
10410   10110  1 D 0950 1050 10110        C   10110 
(G  O E (U) UOp (Sht ) M
 1        2   0   -15. S
FBAN
(NFr) O (NTo) Nc C (Vmn (Vmx Bctrl (Qini) T A (Extr
10146            D 0950 1050 10146        L         
(G  O E (U) UOp (Sht ) M
10        1   0    3.6 S
FBAN
(NFr) O (NTo) Nc C (Vmn (Vmx Bctrl (Qini) T A (Extr
10179            D 0950 1050 10179    3.6 C         
(G  O E (U) UOp (Sht ) M
10        1   1    3.6 S
FBAN
(NFr) O (NTo) Nc C (Vmn (Vmx Bctrl (Qini) T A (Extr
10183            D 0950 1050 10183        L         
(G  O E (U) UOp (Sht ) M
10        1   0    1.2 S
FBAN
(NFr) O (NTo) Nc C (Vmn (Vmx Bctrl (Qini) T A (Extr
10306            D 0950 1050 10306    10. C         
(G  O E (U) UOp (Sht ) M
 1        2   1    10. S
FBAN
(NFr) O (NTo) Nc C (Vmn (Vmx Bctrl (Qini) T A (Extr
10402            D 0950 1050 10402    30. C         
(G  O E (U) UOp (Sht ) M
 1        1   1    30. S
FBAN
(NFr) O (NTo) Nc C (Vmn (Vmx Bctrl (Qini) T A (Extr
10405   10419  1 D 0950 1050 10405   -15. C   10405 
(G  O E (U) UOp (Sht ) M
 1        2   1   -15. S
FBAN
(NFr) O (NTo) Nc C (Vmn (Vmx Bctrl (Qini) T A (Extr
10566            D 0950 1050 10566        C         
(G  O E (U) UOp (Sht ) M
 1        1   0    -5. S
FBAN
(NFr) O (NTo) Nc C (Vmn (Vmx Bctrl (Qini) T A (Extr
41958   10575  1 D 0950 1050 10575        C   10575 
(G  O E (U) UOp (Sht ) M
 1        1   0   -10. S
FBAN
(NFr) O (NTo) Nc C (Vmn (Vmx Bctrl (Qini) T A (Extr
10722            D 0950 1050 10722    20. C         
(G  O E (U) UOp (Sht ) M
10        3   2    10. S
FBAN
(NFr) O (NTo) Nc C (Vmn (Vmx Bctrl (Qini) T A (Extr
11050            D 0950 1050 11050   -25. C         
(G  O E (U) UOp (Sht ) M
 1        2   1   -25. S
99999
EXIC 
FIM



